test/data/enwl/networks/Network_14/Feeder_6/Lines.txt
New Line.LINE1 Bus1=1 Bus2=2 phases=3 Linecode=4c_.5_SAC Length=0.16494 Units=m
New Line.LINE2 Bus1=1 Bus2=3 phases=3 Linecode=4c_.5_SAC Length=0.16494 Units=m
New Line.LINE3 Bus1=2 Bus2=4 phases=3 Linecode=4c_.5_SAC Length=0.070491 Units=m
New Line.LINE4 Bus1=2 Bus2=5 phases=3 Linecode=4c_.5_SAC Length=0.070491 Units=m
New Line.LINE5 Bus1=4 Bus2=6 phases=3 Linecode=4c_.5_SAC Length=0.042954 Units=m
New Line.LINE6 Bus1=4 Bus2=7 phases=3 Linecode=4c_.5_SAC Length=0.042954 Units=m
New Line.LINE7 Bus1=6 Bus2=8 phases=3 Linecode=4c_.5_SAC Length=0.061129 Units=m
New Line.LINE8 Bus1=6 Bus2=9 phases=3 Linecode=4c_.5_SAC Length=0.061129 Units=m
New Line.LINE9 Bus1=8 Bus2=10 phases=3 Linecode=4c_.5_SAC Length=0.050011 Units=m
New Line.LINE10 Bus1=8 Bus2=11 phases=3 Linecode=4c_.5_SAC Length=0.050011 Units=m
New Line.LINE11 Bus1=10 Bus2=12 phases=3 Linecode=4c_.5_SAC Length=0.053759 Units=m
New Line.LINE12 Bus1=10 Bus2=13 phases=3 Linecode=4c_.5_SAC Length=0.053759 Units=m
New Line.LINE13 Bus1=12 Bus2=14 phases=3 Linecode=4c_.5_SAC Length=0.046573 Units=m
New Line.LINE14 Bus1=12 Bus2=15 phases=3 Linecode=4c_.5_SAC Length=0.046573 Units=m
New Line.LINE15 Bus1=14 Bus2=16 phases=3 Linecode=4c_.5_SAC Length=0.047886 Units=m
New Line.LINE16 Bus1=14 Bus2=17 phases=3 Linecode=4c_.5_SAC Length=0.047886 Units=m
New Line.LINE17 Bus1=16 Bus2=18 phases=3 Linecode=4c_.5_SAC Length=0.036891 Units=m
New Line.LINE18 Bus1=16 Bus2=19 phases=3 Linecode=4c_.5_SAC Length=0.036891 Units=m
New Line.LINE19 Bus1=18 Bus2=20 phases=3 Linecode=4c_.5_SAC Length=0.048166 Units=m
New Line.LINE20 Bus1=18 Bus2=21 phases=3 Linecode=4c_.5_SAC Length=0.048166 Units=m
New Line.LINE21 Bus1=20 Bus2=22 phases=3 Linecode=4c_.5_SAC Length=0.29013 Units=m
New Line.LINE22 Bus1=20 Bus2=23 phases=3 Linecode=4c_.5_SAC Length=0.29013 Units=m
New Line.LINE23 Bus1=22 Bus2=24 phases=3 Linecode=4c_.5_SAC Length=0.15182 Units=m
New Line.LINE24 Bus1=22 Bus2=25 phases=3 Linecode=4c_.5_SAC Length=0.15182 Units=m
New Line.LINE25 Bus1=24 Bus2=26 phases=3 Linecode=4c_.5_SAC Length=0.1589 Units=m
New Line.LINE26 Bus1=24 Bus2=27 phases=3 Linecode=4c_.5_SAC Length=0.1589 Units=m
New Line.LINE27 Bus1=26 Bus2=28 phases=3 Linecode=4c_.5_SAC Length=1.9892 Units=m
New Line.LINE28 Bus1=26 Bus2=29 phases=3 Linecode=4c_.5_SAC Length=1.9892 Units=m
New Line.LINE29 Bus1=28 Bus2=30 phases=3 Linecode=4c_.5_SAC Length=0.055945 Units=m
New Line.LINE30 Bus1=28 Bus2=31 phases=3 Linecode=4c_.5_SAC Length=0.055945 Units=m
New Line.LINE31 Bus1=30 Bus2=32 phases=3 Linecode=4c_.5_SAC Length=0.062769 Units=m
New Line.LINE32 Bus1=30 Bus2=33 phases=3 Linecode=4c_.5_SAC Length=0.062769 Units=m
New Line.LINE33 Bus1=32 Bus2=34 phases=3 Linecode=4c_.5_SAC Length=0.055471 Units=m
New Line.LINE34 Bus1=32 Bus2=35 phases=3 Linecode=4c_.5_SAC Length=0.055471 Units=m
New Line.LINE35 Bus1=34 Bus2=36 phases=3 Linecode=4c_.5_SAC Length=0.067425 Units=m
New Line.LINE36 Bus1=34 Bus2=37 phases=3 Linecode=4c_.5_SAC Length=0.067425 Units=m
New Line.LINE37 Bus1=36 Bus2=38 phases=3 Linecode=4c_.5_SAC Length=0.059548 Units=m
New Line.LINE38 Bus1=36 Bus2=39 phases=3 Linecode=4c_.5_SAC Length=0.059548 Units=m
New Line.LINE39 Bus1=38 Bus2=40 phases=3 Linecode=4c_.5_SAC Length=0.045277 Units=m
New Line.LINE40 Bus1=38 Bus2=41 phases=3 Linecode=4c_.5_SAC Length=0.045277 Units=m
New Line.LINE41 Bus1=40 Bus2=42 phases=3 Linecode=4c_.5_SAC Length=1.0141 Units=m
New Line.LINE42 Bus1=40 Bus2=43 phases=3 Linecode=4c_.5_SAC Length=1.0141 Units=m
New Line.LINE43 Bus1=42 Bus2=44 phases=3 Linecode=4c_.5_SAC Length=2.7761 Units=m
New Line.LINE44 Bus1=42 Bus2=45 phases=3 Linecode=4c_.5_SAC Length=0.27789 Units=m
New Line.LINE45 Bus1=44 Bus2=46 phases=3 Linecode=4c_.5_SAC Length=4.3532 Units=m
New Line.LINE46 Bus1=44 Bus2=47 phases=3 Linecode=4c_.5_SAC Length=4.3532 Units=m
New Line.LINE47 Bus1=44 Bus2=48 phases=3 Linecode=4c_.5_SAC Length=2.4982 Units=m
New Line.LINE48 Bus1=45 Bus2=49 phases=3 Linecode=2c_.007 Length=0.16298 Units=m
New Line.LINE49 Bus1=45 Bus2=50 phases=3 Linecode=2c_.007 Length=0.16298 Units=m
New Line.LINE50 Bus1=46 Bus2=51 phases=3 Linecode=4c_.5_SAC Length=1.7031 Units=m
New Line.LINE51 Bus1=46 Bus2=52 phases=3 Linecode=4c_.5_SAC Length=1.7031 Units=m
New Line.LINE52 Bus1=49 Bus2=53 phases=3 Linecode=2c_.007 Length=0.18147 Units=m
New Line.LINE53 Bus1=49 Bus2=54 phases=3 Linecode=2c_.007 Length=0.18147 Units=m
New Line.LINE54 Bus1=51 Bus2=55 phases=3 Linecode=4c_.5_SAC Length=0.30071 Units=m
New Line.LINE55 Bus1=51 Bus2=56 phases=3 Linecode=4c_.5_SAC Length=0.30071 Units=m
New Line.LINE56 Bus1=53 Bus2=57 phases=3 Linecode=2c_.007 Length=0.20441 Units=m
New Line.LINE57 Bus1=53 Bus2=58 phases=3 Linecode=2c_.007 Length=0.20441 Units=m
New Line.LINE58 Bus1=55 Bus2=59 phases=3 Linecode=4c_.5_SAC Length=0.24117 Units=m
New Line.LINE59 Bus1=55 Bus2=60 phases=3 Linecode=4c_.5_SAC Length=0.24117 Units=m
New Line.LINE60 Bus1=57 Bus2=61 phases=3 Linecode=2c_.007 Length=0.10914 Units=m
New Line.LINE61 Bus1=57 Bus2=62 phases=3 Linecode=2c_.007 Length=0.10914 Units=m
New Line.LINE62 Bus1=59 Bus2=63 phases=3 Linecode=4c_.5_SAC Length=0.23561 Units=m
New Line.LINE63 Bus1=59 Bus2=64 phases=3 Linecode=4c_.5_SAC Length=0.23561 Units=m
New Line.LINE64 Bus1=61 Bus2=65 phases=3 Linecode=2c_.007 Length=0.1253 Units=m
New Line.LINE65 Bus1=61 Bus2=66 phases=3 Linecode=2c_.007 Length=0.1253 Units=m
New Line.LINE66 Bus1=63 Bus2=67 phases=3 Linecode=4c_.5_SAC Length=0.32 Units=m
New Line.LINE67 Bus1=63 Bus2=68 phases=3 Linecode=4c_.5_SAC Length=0.32 Units=m
New Line.LINE68 Bus1=65 Bus2=69 phases=3 Linecode=2c_.007 Length=0.6464 Units=m
New Line.LINE69 Bus1=65 Bus2=70 phases=3 Linecode=2c_.007 Length=0.6464 Units=m
New Line.LINE70 Bus1=67 Bus2=71 phases=3 Linecode=4c_.5_SAC Length=0.69 Units=m
New Line.LINE71 Bus1=67 Bus2=72 phases=3 Linecode=4c_.5_SAC Length=0.69 Units=m
New Line.LINE72 Bus1=69 Bus2=73 phases=3 Linecode=2c_.007 Length=1.0552 Units=m
New Line.LINE73 Bus1=69 Bus2=74 phases=3 Linecode=2c_.007 Length=1.0552 Units=m
New Line.LINE74 Bus1=71 Bus2=75 phases=3 Linecode=4c_.5_SAC Length=1.3294 Units=m
New Line.LINE75 Bus1=73 Bus2=76 phases=3 Linecode=2c_.007 Length=2.247 Units=m
New Line.LINE76 Bus1=73 Bus2=77 phases=3 Linecode=2c_.007 Length=2.247 Units=m
New Line.LINE77 Bus1=75 Bus2=78 phases=3 Linecode=4c_.5_SAC Length=1.581 Units=m
New Line.LINE78 Bus1=78 Bus2=79 phases=3 Linecode=4c_.5_SAC Length=1.228 Units=m
New Line.LINE79 Bus1=79 Bus2=80 phases=3 Linecode=4c_.5_SAC Length=4.1006 Units=m
New Line.LINE80 Bus1=80 Bus2=81 phases=3 Linecode=4c_.5_SAC Length=1.4922 Units=m
New Line.LINE81 Bus1=81 Bus2=82 phases=3 Linecode=.007 Length=0.27719 Units=m
New Line.LINE82 Bus1=81 Bus2=83 phases=3 Linecode=4c_.5_SAC Length=1.1986 Units=m
New Line.LINE83 Bus1=82 Bus2=84 phases=3 Linecode=.007 Length=0.13274 Units=m
New Line.LINE84 Bus1=83 Bus2=85 phases=3 Linecode=4c_.5_SAC Length=0.64712 Units=m
New Line.LINE85 Bus1=84 Bus2=86 phases=3 Linecode=.007 Length=0.11236 Units=m
New Line.LINE86 Bus1=85 Bus2=87 phases=3 Linecode=4c_.5_SAC Length=3.501 Units=m
New Line.LINE87 Bus1=86 Bus2=88 phases=3 Linecode=.007 Length=0.25397 Units=m
New Line.LINE88 Bus1=87 Bus2=89 phases=3 Linecode=4c_.5_SAC Length=2.7009 Units=m
New Line.LINE89 Bus1=88 Bus2=90 phases=3 Linecode=4_PC Length=0.16528 Units=m
New Line.LINE90 Bus1=89 Bus2=91 phases=3 Linecode=4c_.5_SAC Length=1.8179 Units=m
New Line.LINE91 Bus1=90 Bus2=92 phases=3 Linecode=4_PC Length=0.11068 Units=m
New Line.LINE92 Bus1=91 Bus2=93 phases=3 Linecode=4c_.5_SAC Length=2.0371 Units=m
New Line.LINE93 Bus1=92 Bus2=94 phases=3 Linecode=4_PC Length=0.14355 Units=m
New Line.LINE94 Bus1=93 Bus2=95 phases=3 Linecode=4c_.5_SAC Length=2.1729 Units=m
New Line.LINE95 Bus1=94 Bus2=96 phases=3 Linecode=4_PC Length=0.098999 Units=m
New Line.LINE96 Bus1=95 Bus2=97 phases=3 Linecode=4c_.5_SAC Length=3.7508 Units=m
New Line.LINE97 Bus1=96 Bus2=98 phases=3 Linecode=4_PC Length=0.14362 Units=m
New Line.LINE98 Bus1=97 Bus2=99 phases=3 Linecode=4c_.5_SAC Length=3.4098 Units=m
New Line.LINE99 Bus1=98 Bus2=100 phases=3 Linecode=4_PC Length=0.13378 Units=m
New Line.LINE100 Bus1=99 Bus2=101 phases=3 Linecode=4c_.5_SAC Length=4.2349 Units=m
New Line.LINE101 Bus1=100 Bus2=102 phases=3 Linecode=4_PC Length=0.66786 Units=m
New Line.LINE102 Bus1=101 Bus2=103 phases=3 Linecode=4c_.5_SAC Length=1.3149 Units=m
New Line.LINE103 Bus1=102 Bus2=104 phases=3 Linecode=4_PC Length=0.37084 Units=m
New Line.LINE104 Bus1=103 Bus2=105 phases=3 Linecode=4c_.5_SAC Length=0.36098 Units=m
New Line.LINE105 Bus1=104 Bus2=106 phases=3 Linecode=4_PC Length=0.056401 Units=m
New Line.LINE106 Bus1=105 Bus2=107 phases=3 Linecode=4c_.5_SAC Length=0.23671 Units=m
New Line.LINE107 Bus1=106 Bus2=108 phases=3 Linecode=4_PC Length=0.049406 Units=m
New Line.LINE108 Bus1=107 Bus2=109 phases=3 Linecode=4c_.5_SAC Length=0.18102 Units=m
New Line.LINE109 Bus1=108 Bus2=110 phases=3 Linecode=4_PC Length=0.064514 Units=m
New Line.LINE110 Bus1=109 Bus2=111 phases=3 Linecode=4c_.5_SAC Length=0.18762 Units=m
New Line.LINE111 Bus1=110 Bus2=112 phases=3 Linecode=4_PC Length=0.063127 Units=m
New Line.LINE112 Bus1=111 Bus2=113 phases=3 Linecode=4c_.5_SAC Length=0.17673 Units=m
New Line.LINE113 Bus1=112 Bus2=114 phases=3 Linecode=4_PC Length=1.633 Units=m
New Line.LINE114 Bus1=113 Bus2=115 phases=3 Linecode=4c_.5_SAC Length=0.225 Units=m
New Line.LINE115 Bus1=114 Bus2=116 phases=3 Linecode=4_PC Length=1.408 Units=m
New Line.LINE116 Bus1=115 Bus2=117 phases=3 Linecode=4c_.5_SAC Length=0.61378 Units=m
New Line.LINE117 Bus1=116 Bus2=118 phases=3 Linecode=4_PC Length=1.3127 Units=m
New Line.LINE118 Bus1=117 Bus2=119 phases=3 Linecode=4c_.5_SAC Length=3.253 Units=m
New Line.LINE119 Bus1=118 Bus2=120 phases=3 Linecode=4_PC Length=1.3952 Units=m
New Line.LINE120 Bus1=119 Bus2=121 phases=3 Linecode=4c_.3_AS Length=3.2918 Units=m
New Line.LINE121 Bus1=119 Bus2=122 phases=3 Linecode=4c_.3_AS Length=3.2918 Units=m
New Line.LINE122 Bus1=120 Bus2=123 phases=3 Linecode=4_PC Length=1.5689 Units=m
New Line.LINE123 Bus1=121 Bus2=124 phases=3 Linecode=4c_.3_AS Length=2.2446 Units=m
New Line.LINE124 Bus1=121 Bus2=125 phases=3 Linecode=4c_.3_AS Length=2.2446 Units=m
New Line.LINE125 Bus1=123 Bus2=126 phases=3 Linecode=4_PC Length=1.6664 Units=m
New Line.LINE126 Bus1=124 Bus2=127 phases=3 Linecode=4c_.3_AS Length=1.5224 Units=m
New Line.LINE127 Bus1=124 Bus2=128 phases=3 Linecode=4c_.3_AS Length=1.5224 Units=m
New Line.LINE128 Bus1=126 Bus2=129 phases=3 Linecode=4_PC Length=3.8541 Units=m
New Line.LINE129 Bus1=127 Bus2=130 phases=3 Linecode=25_SAC_XC Length=16.3958 Units=m
New Line.LINE130 Bus1=127 Bus2=131 phases=3 Linecode=25_SAC_XC Length=15.088 Units=m
New Line.LINE131 Bus1=127 Bus2=132 phases=3 Linecode=25_SAC_XC Length=15.088 Units=m
New Line.LINE132 Bus1=127 Bus2=133 phases=3 Linecode=25_SAC_XC Length=15.088 Units=m
New Line.LINE133 Bus1=127 Bus2=134 phases=3 Linecode=25_SAC_XC Length=15.088 Units=m
New Line.LINE134 Bus1=127 Bus2=135 phases=3 Linecode=25_SAC_XC Length=15.088 Units=m
New Line.LINE135 Bus1=127 Bus2=136 phases=3 Linecode=25_SAC_XC Length=15.088 Units=m
New Line.LINE136 Bus1=127 Bus2=137 phases=3 Linecode=25_SAC_XC Length=15.088 Units=m
New Line.LINE137 Bus1=127 Bus2=138 phases=3 Linecode=25_SAC_XC Length=15.088 Units=m
New Line.LINE138 Bus1=127 Bus2=139 phases=3 Linecode=25_SAC_XC Length=15.088 Units=m
New Line.LINE139 Bus1=127 Bus2=140 phases=3 Linecode=25_SAC_XC Length=15.088 Units=m
New Line.LINE140 Bus1=127 Bus2=141 phases=3 Linecode=25_SAC_XC Length=15.088 Units=m
New Line.LINE141 Bus1=127 Bus2=142 phases=3 Linecode=25_SAC_XC Length=15.088 Units=m
New Line.LINE142 Bus1=127 Bus2=143 phases=3 Linecode=25_SAC_XC Length=15.088 Units=m
New Line.LINE143 Bus1=127 Bus2=144 phases=3 Linecode=25_SAC_XC Length=15.088 Units=m
New Line.LINE144 Bus1=127 Bus2=145 phases=3 Linecode=25_SAC_XC Length=15.088 Units=m
New Line.LINE145 Bus1=127 Bus2=146 phases=3 Linecode=25_SAC_XC Length=15.088 Units=m
New Line.LINE146 Bus1=127 Bus2=147 phases=3 Linecode=25_SAC_XC Length=15.088 Units=m
New Line.LINE147 Bus1=127 Bus2=148 phases=3 Linecode=25_SAC_XC Length=15.088 Units=m
New Line.LINE148 Bus1=127 Bus2=149 phases=3 Linecode=25_SAC_XC Length=15.088 Units=m
New Line.LINE149 Bus1=127 Bus2=150 phases=3 Linecode=25_SAC_XC Length=15.088 Units=m
New Line.LINE150 Bus1=127 Bus2=151 phases=3 Linecode=25_SAC_XC Length=15.088 Units=m
New Line.LINE151 Bus1=127 Bus2=152 phases=3 Linecode=25_SAC_XC Length=15.088 Units=m
New Line.LINE152 Bus1=127 Bus2=153 phases=3 Linecode=25_SAC_XC Length=15.088 Units=m
New Line.LINE153 Bus1=127 Bus2=154 phases=3 Linecode=25_SAC_XC Length=15.088 Units=m
New Line.LINE154 Bus1=127 Bus2=155 phases=3 Linecode=25_SAC_XC Length=15.088 Units=m
New Line.LINE155 Bus1=127 Bus2=156 phases=3 Linecode=25_SAC_XC Length=15.088 Units=m
New Line.LINE156 Bus1=127 Bus2=157 phases=3 Linecode=25_SAC_XC Length=15.088 Units=m
New Line.LINE157 Bus1=127 Bus2=158 phases=3 Linecode=25_SAC_XC Length=15.088 Units=m
New Line.LINE158 Bus1=127 Bus2=159 phases=3 Linecode=25_SAC_XC Length=15.088 Units=m
New Line.LINE159 Bus1=127 Bus2=160 phases=3 Linecode=25_SAC_XC Length=15.088 Units=m
New Line.LINE160 Bus1=127 Bus2=161 phases=3 Linecode=25_SAC_XC Length=15.088 Units=m
New Line.LINE161 Bus1=127 Bus2=162 phases=3 Linecode=25_SAC_XC Length=15.088 Units=m
New Line.LINE162 Bus1=127 Bus2=163 phases=3 Linecode=25_SAC_XC Length=15.088 Units=m
New Line.LINE163 Bus1=127 Bus2=164 phases=3 Linecode=25_SAC_XC Length=15.088 Units=m
New Line.LINE164 Bus1=127 Bus2=165 phases=3 Linecode=25_SAC_XC Length=15.088 Units=m
New Line.LINE165 Bus1=127 Bus2=166 phases=3 Linecode=25_SAC_XC Length=15.088 Units=m
New Line.LINE166 Bus1=127 Bus2=167 phases=3 Linecode=25_SAC_XC Length=15.088 Units=m
New Line.LINE167 Bus1=127 Bus2=168 phases=3 Linecode=25_SAC_XC Length=15.088 Units=m
New Line.LINE168 Bus1=127 Bus2=169 phases=3 Linecode=25_SAC_XC Length=15.088 Units=m
New Line.LINE169 Bus1=127 Bus2=170 phases=3 Linecode=25_SAC_XC Length=15.088 Units=m
New Line.LINE170 Bus1=127 Bus2=171 phases=3 Linecode=25_SAC_XC Length=15.088 Units=m
New Line.LINE171 Bus1=127 Bus2=172 phases=3 Linecode=25_SAC_XC Length=15.088 Units=m
New Line.LINE172 Bus1=127 Bus2=173 phases=3 Linecode=25_SAC_XC Length=15.088 Units=m
New Line.LINE173 Bus1=129 Bus2=174 phases=3 Linecode=4_PC Length=6.3648 Units=m
New Line.LINE174 Bus1=174 Bus2=175 phases=3 Linecode=4_PC Length=0.91879 Units=m
